OPF/118bus_results/case118.raw
 0,  100.000000
case118.raw / File written by to_psse.gms
4 / 29 / 2015
  1 , ' 1 ',  138.000000 ,  2 ,  0.000000 ,  0.000000 ,  1 ,  1 ,  0.955000 ,  10.670000
  2 , ' 2 ',  138.000000 ,  1 ,  0.000000 ,  0.000000 ,  1 ,  1 ,  0.971000 ,  11.220000
  3 , ' 3 ',  138.000000 ,  1 ,  0.000000 ,  0.000000 ,  1 ,  1 ,  0.968000 ,  11.560000
  4 , ' 4 ',  138.000000 ,  2 ,  0.000000 ,  0.000000 ,  1 ,  1 ,  0.998000 ,  15.280000
  5 , ' 5 ',  138.000000 ,  1 ,  0.000000 ,  -40.000000 ,  1 ,  1 ,  1.002000 ,  15.730000
  6 , ' 6 ',  138.000000 ,  2 ,  0.000000 ,  0.000000 ,  1 ,  1 ,  0.990000 ,  13.000000
  7 , ' 7 ',  138.000000 ,  1 ,  0.000000 ,  0.000000 ,  1 ,  1 ,  0.989000 ,  12.560000
  8 , ' 8 ',  345.000000 ,  2 ,  0.000000 ,  0.000000 ,  1 ,  1 ,  1.015000 ,  20.770000
  9 , ' 9 ',  345.000000 ,  1 ,  0.000000 ,  0.000000 ,  1 ,  1 ,  1.043000 ,  28.020000
  10 , ' 10 ',  345.000000 ,  2 ,  0.000000 ,  0.000000 ,  1 ,  1 ,  1.050000 ,  35.610000
  11 , ' 11 ',  138.000000 ,  1 ,  0.000000 ,  0.000000 ,  1 ,  1 ,  0.985000 ,  12.720000
  12 , ' 12 ',  138.000000 ,  2 ,  0.000000 ,  0.000000 ,  1 ,  1 ,  0.990000 ,  12.200000
  13 , ' 13 ',  138.000000 ,  1 ,  0.000000 ,  0.000000 ,  1 ,  1 ,  0.968000 ,  11.350000
  14 , ' 14 ',  138.000000 ,  1 ,  0.000000 ,  0.000000 ,  1 ,  1 ,  0.984000 ,  11.500000
  15 , ' 15 ',  138.000000 ,  2 ,  0.000000 ,  0.000000 ,  1 ,  1 ,  0.970000 ,  11.230000
  16 , ' 16 ',  138.000000 ,  1 ,  0.000000 ,  0.000000 ,  1 ,  1 ,  0.984000 ,  11.910000
  17 , ' 17 ',  138.000000 ,  1 ,  0.000000 ,  0.000000 ,  1 ,  1 ,  0.995000 ,  13.740000
  18 , ' 18 ',  138.000000 ,  2 ,  0.000000 ,  0.000000 ,  1 ,  1 ,  0.973000 ,  11.530000
  19 , ' 19 ',  138.000000 ,  2 ,  0.000000 ,  0.000000 ,  1 ,  1 ,  0.963000 ,  11.050000
  20 , ' 20 ',  138.000000 ,  1 ,  0.000000 ,  0.000000 ,  1 ,  1 ,  0.958000 ,  11.930000
  21 , ' 21 ',  138.000000 ,  1 ,  0.000000 ,  0.000000 ,  1 ,  1 ,  0.959000 ,  13.520000
  22 , ' 22 ',  138.000000 ,  1 ,  0.000000 ,  0.000000 ,  1 ,  1 ,  0.970000 ,  16.080000
  23 , ' 23 ',  138.000000 ,  1 ,  0.000000 ,  0.000000 ,  1 ,  1 ,  1.000000 ,  21.000000
  24 , ' 24 ',  138.000000 ,  2 ,  0.000000 ,  0.000000 ,  1 ,  1 ,  0.992000 ,  20.890000
  25 , ' 25 ',  138.000000 ,  2 ,  0.000000 ,  0.000000 ,  1 ,  1 ,  1.050000 ,  27.930000
  26 , ' 26 ',  345.000000 ,  2 ,  0.000000 ,  0.000000 ,  1 ,  1 ,  1.015000 ,  29.710000
  27 , ' 27 ',  138.000000 ,  2 ,  0.000000 ,  0.000000 ,  1 ,  1 ,  0.968000 ,  15.350000
  28 , ' 28 ',  138.000000 ,  1 ,  0.000000 ,  0.000000 ,  1 ,  1 ,  0.962000 ,  13.620000
  29 , ' 29 ',  138.000000 ,  1 ,  0.000000 ,  0.000000 ,  1 ,  1 ,  0.963000 ,  12.630000
  30 , ' 30 ',  345.000000 ,  1 ,  0.000000 ,  0.000000 ,  1 ,  1 ,  0.968000 ,  18.790000
  31 , ' 31 ',  138.000000 ,  2 ,  0.000000 ,  0.000000 ,  1 ,  1 ,  0.967000 ,  12.750000
  32 , ' 32 ',  138.000000 ,  2 ,  0.000000 ,  0.000000 ,  1 ,  1 ,  0.964000 ,  14.800000
  33 , ' 33 ',  138.000000 ,  1 ,  0.000000 ,  0.000000 ,  1 ,  1 ,  0.972000 ,  10.630000
  34 , ' 34 ',  138.000000 ,  2 ,  0.000000 ,  14.000000 ,  1 ,  1 ,  0.986000 ,  11.300000
  35 , ' 35 ',  138.000000 ,  1 ,  0.000000 ,  0.000000 ,  1 ,  1 ,  0.981000 ,  10.870000
  36 , ' 36 ',  138.000000 ,  2 ,  0.000000 ,  0.000000 ,  1 ,  1 ,  0.980000 ,  10.870000
  37 , ' 37 ',  138.000000 ,  1 ,  0.000000 ,  -25.000000 ,  1 ,  1 ,  0.992000 ,  11.770000
  38 , ' 38 ',  345.000000 ,  1 ,  0.000000 ,  0.000000 ,  1 ,  1 ,  0.962000 ,  16.910000
  39 , ' 39 ',  138.000000 ,  1 ,  0.000000 ,  0.000000 ,  1 ,  1 ,  0.970000 ,  8.410000
  40 , ' 40 ',  138.000000 ,  2 ,  0.000000 ,  0.000000 ,  1 ,  1 ,  0.970000 ,  7.350000
  41 , ' 41 ',  138.000000 ,  1 ,  0.000000 ,  0.000000 ,  1 ,  1 ,  0.967000 ,  6.920000
  42 , ' 42 ',  138.000000 ,  2 ,  0.000000 ,  0.000000 ,  1 ,  1 ,  0.985000 ,  8.530000
  43 , ' 43 ',  138.000000 ,  1 ,  0.000000 ,  0.000000 ,  1 ,  1 ,  0.978000 ,  11.280000
  44 , ' 44 ',  138.000000 ,  1 ,  0.000000 ,  10.000000 ,  1 ,  1 ,  0.985000 ,  13.820000
  45 , ' 45 ',  138.000000 ,  1 ,  0.000000 ,  10.000000 ,  1 ,  1 ,  0.987000 ,  15.670000
  46 , ' 46 ',  138.000000 ,  2 ,  0.000000 ,  10.000000 ,  1 ,  1 ,  1.005000 ,  18.490000
  47 , ' 47 ',  138.000000 ,  1 ,  0.000000 ,  0.000000 ,  1 ,  1 ,  1.017000 ,  20.730000
  48 , ' 48 ',  138.000000 ,  1 ,  0.000000 ,  15.000000 ,  1 ,  1 ,  1.021000 ,  19.930000
  49 , ' 49 ',  138.000000 ,  2 ,  0.000000 ,  0.000000 ,  1 ,  1 ,  1.025000 ,  20.940000
  50 , ' 50 ',  138.000000 ,  1 ,  0.000000 ,  0.000000 ,  1 ,  1 ,  1.001000 ,  18.900000
  51 , ' 51 ',  138.000000 ,  1 ,  0.000000 ,  0.000000 ,  1 ,  1 ,  0.967000 ,  16.280000
  52 , ' 52 ',  138.000000 ,  1 ,  0.000000 ,  0.000000 ,  1 ,  1 ,  0.957000 ,  15.320000
  53 , ' 53 ',  138.000000 ,  1 ,  0.000000 ,  0.000000 ,  1 ,  1 ,  0.946000 ,  14.350000
  54 , ' 54 ',  138.000000 ,  2 ,  0.000000 ,  0.000000 ,  1 ,  1 ,  0.955000 ,  15.260000
  55 , ' 55 ',  138.000000 ,  2 ,  0.000000 ,  0.000000 ,  1 ,  1 ,  0.952000 ,  14.970000
  56 , ' 56 ',  138.000000 ,  2 ,  0.000000 ,  0.000000 ,  1 ,  1 ,  0.954000 ,  15.160000
  57 , ' 57 ',  138.000000 ,  1 ,  0.000000 ,  0.000000 ,  1 ,  1 ,  0.971000 ,  16.360000
  58 , ' 58 ',  138.000000 ,  1 ,  0.000000 ,  0.000000 ,  1 ,  1 ,  0.959000 ,  15.510000
  59 , ' 59 ',  138.000000 ,  2 ,  0.000000 ,  0.000000 ,  1 ,  1 ,  0.985000 ,  19.370000
  60 , ' 60 ',  138.000000 ,  1 ,  0.000000 ,  0.000000 ,  1 ,  1 ,  0.993000 ,  23.150000
  61 , ' 61 ',  138.000000 ,  2 ,  0.000000 ,  0.000000 ,  1 ,  1 ,  0.995000 ,  24.040000
  62 , ' 62 ',  138.000000 ,  2 ,  0.000000 ,  0.000000 ,  1 ,  1 ,  0.998000 ,  23.430000
  63 , ' 63 ',  345.000000 ,  1 ,  0.000000 ,  0.000000 ,  1 ,  1 ,  0.969000 ,  22.750000
  64 , ' 64 ',  345.000000 ,  1 ,  0.000000 ,  0.000000 ,  1 ,  1 ,  0.984000 ,  24.520000
  65 , ' 65 ',  345.000000 ,  2 ,  0.000000 ,  0.000000 ,  1 ,  1 ,  1.005000 ,  27.650000
  66 , ' 66 ',  138.000000 ,  2 ,  0.000000 ,  0.000000 ,  1 ,  1 ,  1.050000 ,  27.480000
  67 , ' 67 ',  138.000000 ,  1 ,  0.000000 ,  0.000000 ,  1 ,  1 ,  1.020000 ,  24.840000
  68 , ' 68 ',  345.000000 ,  1 ,  0.000000 ,  0.000000 ,  1 ,  1 ,  1.003000 ,  27.550000
  69 , ' 69 ',  138.000000 ,  3 ,  0.000000 ,  0.000000 ,  1 ,  1 ,  1.035000 ,  30.000000
  70 , ' 70 ',  138.000000 ,  2 ,  0.000000 ,  0.000000 ,  1 ,  1 ,  0.984000 ,  22.580000
  71 , ' 71 ',  138.000000 ,  1 ,  0.000000 ,  0.000000 ,  1 ,  1 ,  0.987000 ,  22.150000
  72 , ' 72 ',  138.000000 ,  2 ,  0.000000 ,  0.000000 ,  1 ,  1 ,  0.980000 ,  20.980000
  73 , ' 73 ',  138.000000 ,  2 ,  0.000000 ,  0.000000 ,  1 ,  1 ,  0.991000 ,  21.940000
  74 , ' 74 ',  138.000000 ,  2 ,  0.000000 ,  12.000000 ,  1 ,  1 ,  0.958000 ,  21.640000
  75 , ' 75 ',  138.000000 ,  1 ,  0.000000 ,  0.000000 ,  1 ,  1 ,  0.967000 ,  22.910000
  76 , ' 76 ',  138.000000 ,  2 ,  0.000000 ,  0.000000 ,  1 ,  1 ,  0.943000 ,  21.770000
  77 , ' 77 ',  138.000000 ,  2 ,  0.000000 ,  0.000000 ,  1 ,  1 ,  1.006000 ,  26.720000
  78 , ' 78 ',  138.000000 ,  1 ,  0.000000 ,  0.000000 ,  1 ,  1 ,  1.003000 ,  26.420000
  79 , ' 79 ',  138.000000 ,  1 ,  0.000000 ,  20.000000 ,  1 ,  1 ,  1.009000 ,  26.720000
  80 , ' 80 ',  138.000000 ,  2 ,  0.000000 ,  0.000000 ,  1 ,  1 ,  1.040000 ,  28.960000
  81 , ' 81 ',  345.000000 ,  1 ,  0.000000 ,  0.000000 ,  1 ,  1 ,  0.997000 ,  28.100000
  82 , ' 82 ',  138.000000 ,  1 ,  0.000000 ,  20.000000 ,  1 ,  1 ,  0.989000 ,  27.240000
  83 , ' 83 ',  138.000000 ,  1 ,  0.000000 ,  10.000000 ,  1 ,  1 ,  0.985000 ,  28.420000
  84 , ' 84 ',  138.000000 ,  1 ,  0.000000 ,  0.000000 ,  1 ,  1 ,  0.980000 ,  30.950000
  85 , ' 85 ',  138.000000 ,  2 ,  0.000000 ,  0.000000 ,  1 ,  1 ,  0.985000 ,  32.510000
  86 , ' 86 ',  138.000000 ,  1 ,  0.000000 ,  0.000000 ,  1 ,  1 ,  0.987000 ,  31.140000
  87 , ' 87 ',  161.000000 ,  2 ,  0.000000 ,  0.000000 ,  1 ,  1 ,  1.015000 ,  31.400000
  88 , ' 88 ',  138.000000 ,  1 ,  0.000000 ,  0.000000 ,  1 ,  1 ,  0.987000 ,  35.640000
  89 , ' 89 ',  138.000000 ,  2 ,  0.000000 ,  0.000000 ,  1 ,  1 ,  1.005000 ,  39.690000
  90 , ' 90 ',  138.000000 ,  2 ,  0.000000 ,  0.000000 ,  1 ,  1 ,  0.985000 ,  33.290000
  91 , ' 91 ',  138.000000 ,  2 ,  0.000000 ,  0.000000 ,  1 ,  1 ,  0.980000 ,  33.310000
  92 , ' 92 ',  138.000000 ,  2 ,  0.000000 ,  0.000000 ,  1 ,  1 ,  0.993000 ,  33.800000
  93 , ' 93 ',  138.000000 ,  1 ,  0.000000 ,  0.000000 ,  1 ,  1 ,  0.987000 ,  30.790000
  94 , ' 94 ',  138.000000 ,  1 ,  0.000000 ,  0.000000 ,  1 ,  1 ,  0.991000 ,  28.640000
  95 , ' 95 ',  138.000000 ,  1 ,  0.000000 ,  0.000000 ,  1 ,  1 ,  0.981000 ,  27.670000
  96 , ' 96 ',  138.000000 ,  1 ,  0.000000 ,  0.000000 ,  1 ,  1 ,  0.993000 ,  27.510000
  97 , ' 97 ',  138.000000 ,  1 ,  0.000000 ,  0.000000 ,  1 ,  1 ,  1.011000 ,  27.880000
  98 , ' 98 ',  138.000000 ,  1 ,  0.000000 ,  0.000000 ,  1 ,  1 ,  1.024000 ,  27.400000
  99 , ' 99 ',  138.000000 ,  2 ,  0.000000 ,  0.000000 ,  1 ,  1 ,  1.010000 ,  27.040000
  100 , ' 100 ',  138.000000 ,  2 ,  0.000000 ,  0.000000 ,  1 ,  1 ,  1.017000 ,  28.030000
  101 , ' 101 ',  138.000000 ,  1 ,  0.000000 ,  0.000000 ,  1 ,  1 ,  0.993000 ,  29.610000
  102 , ' 102 ',  138.000000 ,  1 ,  0.000000 ,  0.000000 ,  1 ,  1 ,  0.991000 ,  32.300000
  103 , ' 103 ',  138.000000 ,  2 ,  0.000000 ,  0.000000 ,  1 ,  1 ,  1.001000 ,  24.440000
  104 , ' 104 ',  138.000000 ,  2 ,  0.000000 ,  0.000000 ,  1 ,  1 ,  0.971000 ,  21.690000
  105 , ' 105 ',  138.000000 ,  2 ,  0.000000 ,  20.000000 ,  1 ,  1 ,  0.965000 ,  20.570000
  106 , ' 106 ',  138.000000 ,  1 ,  0.000000 ,  0.000000 ,  1 ,  1 ,  0.962000 ,  20.320000
  107 , ' 107 ',  138.000000 ,  2 ,  0.000000 ,  6.000000 ,  1 ,  1 ,  0.952000 ,  17.530000
  108 , ' 108 ',  138.000000 ,  1 ,  0.000000 ,  0.000000 ,  1 ,  1 ,  0.967000 ,  19.380000
  109 , ' 109 ',  138.000000 ,  1 ,  0.000000 ,  0.000000 ,  1 ,  1 ,  0.967000 ,  18.930000
  110 , ' 110 ',  138.000000 ,  2 ,  0.000000 ,  6.000000 ,  1 ,  1 ,  0.973000 ,  18.090000
  111 , ' 111 ',  138.000000 ,  2 ,  0.000000 ,  0.000000 ,  1 ,  1 ,  0.980000 ,  19.740000
  112 , ' 112 ',  138.000000 ,  2 ,  0.000000 ,  0.000000 ,  1 ,  1 ,  0.975000 ,  14.990000
  113 , ' 113 ',  138.000000 ,  2 ,  0.000000 ,  0.000000 ,  1 ,  1 ,  0.993000 ,  13.740000
  114 , ' 114 ',  138.000000 ,  1 ,  0.000000 ,  0.000000 ,  1 ,  1 ,  0.960000 ,  14.460000
  115 , ' 115 ',  138.000000 ,  1 ,  0.000000 ,  0.000000 ,  1 ,  1 ,  0.960000 ,  14.460000
  116 , ' 116 ',  138.000000 ,  2 ,  0.000000 ,  0.000000 ,  1 ,  1 ,  1.005000 ,  27.120000
  117 , ' 117 ',  138.000000 ,  1 ,  0.000000 ,  0.000000 ,  1 ,  1 ,  0.974000 ,  10.670000
  118 , ' 118 ',  138.000000 ,  1 ,  0.000000 ,  0.000000 ,  1 ,  1 ,  0.949000 ,  21.920000
0 / END OF BUS DATA, BEGIN LOAD DATA
  1 , '1 ', 1,  1 ,  1 ,  51.000000 ,  27.000000 , 0, 0, 0, 0, 1, 1
  2 , '1 ', 1,  1 ,  1 ,  20.000000 ,  9.000000 , 0, 0, 0, 0, 1, 1
  3 , '1 ', 1,  1 ,  1 ,  39.000000 ,  10.000000 , 0, 0, 0, 0, 1, 1
  4 , '1 ', 1,  1 ,  1 ,  39.000000 ,  12.000000 , 0, 0, 0, 0, 1, 1
  5 , '1 ', 1,  1 ,  1 ,  0.000000 ,  0.000000 , 0, 0, 0, 0, 1, 1
  6 , '1 ', 1,  1 ,  1 ,  52.000000 ,  22.000000 , 0, 0, 0, 0, 1, 1
  7 , '1 ', 1,  1 ,  1 ,  19.000000 ,  2.000000 , 0, 0, 0, 0, 1, 1
  8 , '1 ', 1,  1 ,  1 ,  28.000000 ,  0.000000 , 0, 0, 0, 0, 1, 1
  9 , '1 ', 1,  1 ,  1 ,  0.000000 ,  0.000000 , 0, 0, 0, 0, 1, 1
  10 , '1 ', 1,  1 ,  1 ,  0.000000 ,  0.000000 , 0, 0, 0, 0, 1, 1
  11 , '1 ', 1,  1 ,  1 ,  70.000000 ,  23.000000 , 0, 0, 0, 0, 1, 1
  12 , '1 ', 1,  1 ,  1 ,  47.000000 ,  10.000000 , 0, 0, 0, 0, 1, 1
  13 , '1 ', 1,  1 ,  1 ,  34.000000 ,  16.000000 , 0, 0, 0, 0, 1, 1
  14 , '1 ', 1,  1 ,  1 ,  14.000000 ,  1.000000 , 0, 0, 0, 0, 1, 1
  15 , '1 ', 1,  1 ,  1 ,  90.000000 ,  30.000000 , 0, 0, 0, 0, 1, 1
  16 , '1 ', 1,  1 ,  1 ,  25.000000 ,  10.000000 , 0, 0, 0, 0, 1, 1
  17 , '1 ', 1,  1 ,  1 ,  11.000000 ,  3.000000 , 0, 0, 0, 0, 1, 1
  18 , '1 ', 1,  1 ,  1 ,  60.000000 ,  34.000000 , 0, 0, 0, 0, 1, 1
  19 , '1 ', 1,  1 ,  1 ,  45.000000 ,  25.000000 , 0, 0, 0, 0, 1, 1
  20 , '1 ', 1,  1 ,  1 ,  18.000000 ,  3.000000 , 0, 0, 0, 0, 1, 1
  21 , '1 ', 1,  1 ,  1 ,  14.000000 ,  8.000000 , 0, 0, 0, 0, 1, 1
  22 , '1 ', 1,  1 ,  1 ,  10.000000 ,  5.000000 , 0, 0, 0, 0, 1, 1
  23 , '1 ', 1,  1 ,  1 ,  7.000000 ,  3.000000 , 0, 0, 0, 0, 1, 1
  24 , '1 ', 1,  1 ,  1 ,  13.000000 ,  0.000000 , 0, 0, 0, 0, 1, 1
  25 , '1 ', 1,  1 ,  1 ,  0.000000 ,  0.000000 , 0, 0, 0, 0, 1, 1
  26 , '1 ', 1,  1 ,  1 ,  0.000000 ,  0.000000 , 0, 0, 0, 0, 1, 1
  27 , '1 ', 1,  1 ,  1 ,  71.000000 ,  13.000000 , 0, 0, 0, 0, 1, 1
  28 , '1 ', 1,  1 ,  1 ,  17.000000 ,  7.000000 , 0, 0, 0, 0, 1, 1
  29 , '1 ', 1,  1 ,  1 ,  24.000000 ,  4.000000 , 0, 0, 0, 0, 1, 1
  30 , '1 ', 1,  1 ,  1 ,  0.000000 ,  0.000000 , 0, 0, 0, 0, 1, 1
  31 , '1 ', 1,  1 ,  1 ,  43.000000 ,  27.000000 , 0, 0, 0, 0, 1, 1
  32 , '1 ', 1,  1 ,  1 ,  59.000000 ,  23.000000 , 0, 0, 0, 0, 1, 1
  33 , '1 ', 1,  1 ,  1 ,  23.000000 ,  9.000000 , 0, 0, 0, 0, 1, 1
  34 , '1 ', 1,  1 ,  1 ,  59.000000 ,  26.000000 , 0, 0, 0, 0, 1, 1
  35 , '1 ', 1,  1 ,  1 ,  33.000000 ,  9.000000 , 0, 0, 0, 0, 1, 1
  36 , '1 ', 1,  1 ,  1 ,  31.000000 ,  17.000000 , 0, 0, 0, 0, 1, 1
  37 , '1 ', 1,  1 ,  1 ,  0.000000 ,  0.000000 , 0, 0, 0, 0, 1, 1
  38 , '1 ', 1,  1 ,  1 ,  0.000000 ,  0.000000 , 0, 0, 0, 0, 1, 1
  39 , '1 ', 1,  1 ,  1 ,  27.000000 ,  11.000000 , 0, 0, 0, 0, 1, 1
  40 , '1 ', 1,  1 ,  1 ,  66.000000 ,  23.000000 , 0, 0, 0, 0, 1, 1
  41 , '1 ', 1,  1 ,  1 ,  37.000000 ,  10.000000 , 0, 0, 0, 0, 1, 1
  42 , '1 ', 1,  1 ,  1 ,  96.000000 ,  23.000000 , 0, 0, 0, 0, 1, 1
  43 , '1 ', 1,  1 ,  1 ,  18.000000 ,  7.000000 , 0, 0, 0, 0, 1, 1
  44 , '1 ', 1,  1 ,  1 ,  16.000000 ,  8.000000 , 0, 0, 0, 0, 1, 1
  45 , '1 ', 1,  1 ,  1 ,  53.000000 ,  22.000000 , 0, 0, 0, 0, 1, 1
  46 , '1 ', 1,  1 ,  1 ,  28.000000 ,  10.000000 , 0, 0, 0, 0, 1, 1
  47 , '1 ', 1,  1 ,  1 ,  34.000000 ,  0.000000 , 0, 0, 0, 0, 1, 1
  48 , '1 ', 1,  1 ,  1 ,  20.000000 ,  11.000000 , 0, 0, 0, 0, 1, 1
  49 , '1 ', 1,  1 ,  1 ,  87.000000 ,  30.000000 , 0, 0, 0, 0, 1, 1
  50 , '1 ', 1,  1 ,  1 ,  17.000000 ,  4.000000 , 0, 0, 0, 0, 1, 1
  51 , '1 ', 1,  1 ,  1 ,  17.000000 ,  8.000000 , 0, 0, 0, 0, 1, 1
  52 , '1 ', 1,  1 ,  1 ,  18.000000 ,  5.000000 , 0, 0, 0, 0, 1, 1
  53 , '1 ', 1,  1 ,  1 ,  23.000000 ,  11.000000 , 0, 0, 0, 0, 1, 1
  54 , '1 ', 1,  1 ,  1 ,  113.000000 ,  32.000000 , 0, 0, 0, 0, 1, 1
  55 , '1 ', 1,  1 ,  1 ,  63.000000 ,  22.000000 , 0, 0, 0, 0, 1, 1
  56 , '1 ', 1,  1 ,  1 ,  84.000000 ,  18.000000 , 0, 0, 0, 0, 1, 1
  57 , '1 ', 1,  1 ,  1 ,  12.000000 ,  3.000000 , 0, 0, 0, 0, 1, 1
  58 , '1 ', 1,  1 ,  1 ,  12.000000 ,  3.000000 , 0, 0, 0, 0, 1, 1
  59 , '1 ', 1,  1 ,  1 ,  277.000000 ,  113.000000 , 0, 0, 0, 0, 1, 1
  60 , '1 ', 1,  1 ,  1 ,  78.000000 ,  3.000000 , 0, 0, 0, 0, 1, 1
  61 , '1 ', 1,  1 ,  1 ,  0.000000 ,  0.000000 , 0, 0, 0, 0, 1, 1
  62 , '1 ', 1,  1 ,  1 ,  77.000000 ,  14.000000 , 0, 0, 0, 0, 1, 1
  63 , '1 ', 1,  1 ,  1 ,  0.000000 ,  0.000000 , 0, 0, 0, 0, 1, 1
  64 , '1 ', 1,  1 ,  1 ,  0.000000 ,  0.000000 , 0, 0, 0, 0, 1, 1
  65 , '1 ', 1,  1 ,  1 ,  0.000000 ,  0.000000 , 0, 0, 0, 0, 1, 1
  66 , '1 ', 1,  1 ,  1 ,  39.000000 ,  18.000000 , 0, 0, 0, 0, 1, 1
  67 , '1 ', 1,  1 ,  1 ,  28.000000 ,  7.000000 , 0, 0, 0, 0, 1, 1
  68 , '1 ', 1,  1 ,  1 ,  0.000000 ,  0.000000 , 0, 0, 0, 0, 1, 1
  69 , '1 ', 1,  1 ,  1 ,  0.000000 ,  0.000000 , 0, 0, 0, 0, 1, 1
  70 , '1 ', 1,  1 ,  1 ,  66.000000 ,  20.000000 , 0, 0, 0, 0, 1, 1
  71 , '1 ', 1,  1 ,  1 ,  0.000000 ,  0.000000 , 0, 0, 0, 0, 1, 1
  72 , '1 ', 1,  1 ,  1 ,  12.000000 ,  0.000000 , 0, 0, 0, 0, 1, 1
  73 , '1 ', 1,  1 ,  1 ,  6.000000 ,  0.000000 , 0, 0, 0, 0, 1, 1
  74 , '1 ', 1,  1 ,  1 ,  68.000000 ,  27.000000 , 0, 0, 0, 0, 1, 1
  75 , '1 ', 1,  1 ,  1 ,  47.000000 ,  11.000000 , 0, 0, 0, 0, 1, 1
  76 , '1 ', 1,  1 ,  1 ,  68.000000 ,  36.000000 , 0, 0, 0, 0, 1, 1
  77 , '1 ', 1,  1 ,  1 ,  61.000000 ,  28.000000 , 0, 0, 0, 0, 1, 1
  78 , '1 ', 1,  1 ,  1 ,  71.000000 ,  26.000000 , 0, 0, 0, 0, 1, 1
  79 , '1 ', 1,  1 ,  1 ,  39.000000 ,  32.000000 , 0, 0, 0, 0, 1, 1
  80 , '1 ', 1,  1 ,  1 ,  130.000000 ,  26.000000 , 0, 0, 0, 0, 1, 1
  81 , '1 ', 1,  1 ,  1 ,  0.000000 ,  0.000000 , 0, 0, 0, 0, 1, 1
  82 , '1 ', 1,  1 ,  1 ,  54.000000 ,  27.000000 , 0, 0, 0, 0, 1, 1
  83 , '1 ', 1,  1 ,  1 ,  20.000000 ,  10.000000 , 0, 0, 0, 0, 1, 1
  84 , '1 ', 1,  1 ,  1 ,  11.000000 ,  7.000000 , 0, 0, 0, 0, 1, 1
  85 , '1 ', 1,  1 ,  1 ,  24.000000 ,  15.000000 , 0, 0, 0, 0, 1, 1
  86 , '1 ', 1,  1 ,  1 ,  21.000000 ,  10.000000 , 0, 0, 0, 0, 1, 1
  87 , '1 ', 1,  1 ,  1 ,  0.000000 ,  0.000000 , 0, 0, 0, 0, 1, 1
  88 , '1 ', 1,  1 ,  1 ,  48.000000 ,  10.000000 , 0, 0, 0, 0, 1, 1
  89 , '1 ', 1,  1 ,  1 ,  0.000000 ,  0.000000 , 0, 0, 0, 0, 1, 1
  90 , '1 ', 1,  1 ,  1 ,  163.000000 ,  42.000000 , 0, 0, 0, 0, 1, 1
  91 , '1 ', 1,  1 ,  1 ,  10.000000 ,  0.000000 , 0, 0, 0, 0, 1, 1
  92 , '1 ', 1,  1 ,  1 ,  65.000000 ,  10.000000 , 0, 0, 0, 0, 1, 1
  93 , '1 ', 1,  1 ,  1 ,  12.000000 ,  7.000000 , 0, 0, 0, 0, 1, 1
  94 , '1 ', 1,  1 ,  1 ,  30.000000 ,  16.000000 , 0, 0, 0, 0, 1, 1
  95 , '1 ', 1,  1 ,  1 ,  42.000000 ,  31.000000 , 0, 0, 0, 0, 1, 1
  96 , '1 ', 1,  1 ,  1 ,  38.000000 ,  15.000000 , 0, 0, 0, 0, 1, 1
  97 , '1 ', 1,  1 ,  1 ,  15.000000 ,  9.000000 , 0, 0, 0, 0, 1, 1
  98 , '1 ', 1,  1 ,  1 ,  34.000000 ,  8.000000 , 0, 0, 0, 0, 1, 1
  99 , '1 ', 1,  1 ,  1 ,  42.000000 ,  0.000000 , 0, 0, 0, 0, 1, 1
  100 , '1 ', 1,  1 ,  1 ,  37.000000 ,  18.000000 , 0, 0, 0, 0, 1, 1
  101 , '1 ', 1,  1 ,  1 ,  22.000000 ,  15.000000 , 0, 0, 0, 0, 1, 1
  102 , '1 ', 1,  1 ,  1 ,  5.000000 ,  3.000000 , 0, 0, 0, 0, 1, 1
  103 , '1 ', 1,  1 ,  1 ,  23.000000 ,  16.000000 , 0, 0, 0, 0, 1, 1
  104 , '1 ', 1,  1 ,  1 ,  38.000000 ,  25.000000 , 0, 0, 0, 0, 1, 1
  105 , '1 ', 1,  1 ,  1 ,  31.000000 ,  26.000000 , 0, 0, 0, 0, 1, 1
  106 , '1 ', 1,  1 ,  1 ,  43.000000 ,  16.000000 , 0, 0, 0, 0, 1, 1
  107 , '1 ', 1,  1 ,  1 ,  50.000000 ,  12.000000 , 0, 0, 0, 0, 1, 1
  108 , '1 ', 1,  1 ,  1 ,  2.000000 ,  1.000000 , 0, 0, 0, 0, 1, 1
  109 , '1 ', 1,  1 ,  1 ,  8.000000 ,  3.000000 , 0, 0, 0, 0, 1, 1
  110 , '1 ', 1,  1 ,  1 ,  39.000000 ,  30.000000 , 0, 0, 0, 0, 1, 1
  111 , '1 ', 1,  1 ,  1 ,  0.000000 ,  0.000000 , 0, 0, 0, 0, 1, 1
  112 , '1 ', 1,  1 ,  1 ,  68.000000 ,  13.000000 , 0, 0, 0, 0, 1, 1
  113 , '1 ', 1,  1 ,  1 ,  6.000000 ,  0.000000 , 0, 0, 0, 0, 1, 1
  114 , '1 ', 1,  1 ,  1 ,  8.000000 ,  3.000000 , 0, 0, 0, 0, 1, 1
  115 , '1 ', 1,  1 ,  1 ,  22.000000 ,  7.000000 , 0, 0, 0, 0, 1, 1
  116 , '1 ', 1,  1 ,  1 ,  184.000000 ,  0.000000 , 0, 0, 0, 0, 1, 1
  117 , '1 ', 1,  1 ,  1 ,  20.000000 ,  8.000000 , 0, 0, 0, 0, 1, 1
  118 , '1 ', 1,  1 ,  1 ,  33.000000 ,  15.000000 , 0, 0, 0, 0, 1, 1
0 / END OF LOAD DATA, BEGIN FIXED SHUNT DATA
0 / END OF FIXED SHUNT DATA DATA, BEGIN GENERATOR DATA
  1 ,  1 ,  0.000000 ,  0.000000 ,  15.000000 ,  -5.000000 ,  0.955000 , 0,  100.000000 , 0, 1, 0, 0, 1,  1 , 100,  100.000000 ,  0.000000 , 1, 1
  4 ,  2 ,  0.000000 ,  0.000000 ,  300.000000 ,  -300.000000 ,  0.998000 , 0,  100.000000 , 0, 1, 0, 0, 1,  1 , 100,  100.000000 ,  0.000000 , 1, 1
  6 ,  3 ,  0.000000 ,  0.000000 ,  50.000000 ,  -13.000000 ,  0.990000 , 0,  100.000000 , 0, 1, 0, 0, 1,  1 , 100,  100.000000 ,  0.000000 , 1, 1
  8 ,  4 ,  0.000000 ,  0.000000 ,  300.000000 ,  -300.000000 ,  1.015000 , 0,  100.000000 , 0, 1, 0, 0, 1,  1 , 100,  100.000000 ,  0.000000 , 1, 1
  10 ,  5 ,  450.000000 ,  0.000000 ,  200.000000 ,  -147.000000 ,  1.050000 , 0,  100.000000 , 0, 1, 0, 0, 1,  1 , 100,  550.000000 ,  0.000000 , 1, 1
  12 ,  6 ,  85.000000 ,  0.000000 ,  120.000000 ,  -35.000000 ,  0.990000 , 0,  100.000000 , 0, 1, 0, 0, 1,  1 , 100,  185.000000 ,  0.000000 , 1, 1
  15 ,  7 ,  0.000000 ,  0.000000 ,  30.000000 ,  -10.000000 ,  0.970000 , 0,  100.000000 , 0, 1, 0, 0, 1,  1 , 100,  100.000000 ,  0.000000 , 1, 1
  18 ,  8 ,  0.000000 ,  0.000000 ,  50.000000 ,  -16.000000 ,  0.973000 , 0,  100.000000 , 0, 1, 0, 0, 1,  1 , 100,  100.000000 ,  0.000000 , 1, 1
  19 ,  9 ,  0.000000 ,  0.000000 ,  24.000000 ,  -8.000000 ,  0.962000 , 0,  100.000000 , 0, 1, 0, 0, 1,  1 , 100,  100.000000 ,  0.000000 , 1, 1
  24 ,  10 ,  0.000000 ,  0.000000 ,  300.000000 ,  -300.000000 ,  0.992000 , 0,  100.000000 , 0, 1, 0, 0, 1,  1 , 100,  100.000000 ,  0.000000 , 1, 1
  25 ,  11 ,  220.000000 ,  0.000000 ,  140.000000 ,  -47.000000 ,  1.050000 , 0,  100.000000 , 0, 1, 0, 0, 1,  1 , 100,  320.000000 ,  0.000000 , 1, 1
  26 ,  12 ,  314.000000 ,  0.000000 ,  1000.000000 ,  -1000.000000 ,  1.015000 , 0,  100.000000 , 0, 1, 0, 0, 1,  1 , 100,  414.000000 ,  0.000000 , 1, 1
  27 ,  13 ,  0.000000 ,  0.000000 ,  300.000000 ,  -300.000000 ,  0.968000 , 0,  100.000000 , 0, 1, 0, 0, 1,  1 , 100,  100.000000 ,  0.000000 , 1, 1
  31 ,  14 ,  7.000000 ,  0.000000 ,  300.000000 ,  -300.000000 ,  0.967000 , 0,  100.000000 , 0, 1, 0, 0, 1,  1 , 100,  107.000000 ,  0.000000 , 1, 1
  32 ,  15 ,  0.000000 ,  0.000000 ,  42.000000 ,  -14.000000 ,  0.963000 , 0,  100.000000 , 0, 1, 0, 0, 1,  1 , 100,  100.000000 ,  0.000000 , 1, 1
  34 ,  16 ,  0.000000 ,  0.000000 ,  24.000000 ,  -8.000000 ,  0.984000 , 0,  100.000000 , 0, 1, 0, 0, 1,  1 , 100,  100.000000 ,  0.000000 , 1, 1
  36 ,  17 ,  0.000000 ,  0.000000 ,  24.000000 ,  -8.000000 ,  0.980000 , 0,  100.000000 , 0, 1, 0, 0, 1,  1 , 100,  100.000000 ,  0.000000 , 1, 1
  40 ,  18 ,  0.000000 ,  0.000000 ,  300.000000 ,  -300.000000 ,  0.970000 , 0,  100.000000 , 0, 1, 0, 0, 1,  1 , 100,  100.000000 ,  0.000000 , 1, 1
  42 ,  19 ,  0.000000 ,  0.000000 ,  300.000000 ,  -300.000000 ,  0.985000 , 0,  100.000000 , 0, 1, 0, 0, 1,  1 , 100,  100.000000 ,  0.000000 , 1, 1
  46 ,  20 ,  19.000000 ,  0.000000 ,  100.000000 ,  -100.000000 ,  1.005000 , 0,  100.000000 , 0, 1, 0, 0, 1,  1 , 100,  119.000000 ,  0.000000 , 1, 1
  49 ,  21 ,  204.000000 ,  0.000000 ,  210.000000 ,  -85.000000 ,  1.025000 , 0,  100.000000 , 0, 1, 0, 0, 1,  1 , 100,  304.000000 ,  0.000000 , 1, 1
  54 ,  22 ,  48.000000 ,  0.000000 ,  300.000000 ,  -300.000000 ,  0.955000 , 0,  100.000000 , 0, 1, 0, 0, 1,  1 , 100,  148.000000 ,  0.000000 , 1, 1
  55 ,  23 ,  0.000000 ,  0.000000 ,  23.000000 ,  -8.000000 ,  0.952000 , 0,  100.000000 , 0, 1, 0, 0, 1,  1 , 100,  100.000000 ,  0.000000 , 1, 1
  56 ,  24 ,  0.000000 ,  0.000000 ,  15.000000 ,  -8.000000 ,  0.954000 , 0,  100.000000 , 0, 1, 0, 0, 1,  1 , 100,  100.000000 ,  0.000000 , 1, 1
  59 ,  25 ,  155.000000 ,  0.000000 ,  180.000000 ,  -60.000000 ,  0.985000 , 0,  100.000000 , 0, 1, 0, 0, 1,  1 , 100,  255.000000 ,  0.000000 , 1, 1
  61 ,  26 ,  160.000000 ,  0.000000 ,  300.000000 ,  -100.000000 ,  0.995000 , 0,  100.000000 , 0, 1, 0, 0, 1,  1 , 100,  260.000000 ,  0.000000 , 1, 1
  62 ,  27 ,  0.000000 ,  0.000000 ,  20.000000 ,  -20.000000 ,  0.998000 , 0,  100.000000 , 0, 1, 0, 0, 1,  1 , 100,  100.000000 ,  0.000000 , 1, 1
  65 ,  28 ,  391.000000 ,  0.000000 ,  200.000000 ,  -67.000000 ,  1.005000 , 0,  100.000000 , 0, 1, 0, 0, 1,  1 , 100,  491.000000 ,  0.000000 , 1, 1
  66 ,  29 ,  392.000000 ,  0.000000 ,  200.000000 ,  -67.000000 ,  1.050000 , 0,  100.000000 , 0, 1, 0, 0, 1,  1 , 100,  492.000000 ,  0.000000 , 1, 1
  69 ,  30 ,  516.400000 ,  0.000000 ,  300.000000 ,  -300.000000 ,  1.035000 , 0,  100.000000 , 0, 1, 0, 0, 1,  1 , 100,  805.200000 ,  0.000000 , 1, 1
  70 ,  31 ,  0.000000 ,  0.000000 ,  32.000000 ,  -10.000000 ,  0.984000 , 0,  100.000000 , 0, 1, 0, 0, 1,  1 , 100,  100.000000 ,  0.000000 , 1, 1
  72 ,  32 ,  0.000000 ,  0.000000 ,  100.000000 ,  -100.000000 ,  0.980000 , 0,  100.000000 , 0, 1, 0, 0, 1,  1 , 100,  100.000000 ,  0.000000 , 1, 1
  73 ,  33 ,  0.000000 ,  0.000000 ,  100.000000 ,  -100.000000 ,  0.991000 , 0,  100.000000 , 0, 1, 0, 0, 1,  1 , 100,  100.000000 ,  0.000000 , 1, 1
  74 ,  34 ,  0.000000 ,  0.000000 ,  9.000000 ,  -6.000000 ,  0.958000 , 0,  100.000000 , 0, 1, 0, 0, 1,  1 , 100,  100.000000 ,  0.000000 , 1, 1
  76 ,  35 ,  0.000000 ,  0.000000 ,  23.000000 ,  -8.000000 ,  0.943000 , 0,  100.000000 , 0, 1, 0, 0, 1,  1 , 100,  100.000000 ,  0.000000 , 1, 1
  77 ,  36 ,  0.000000 ,  0.000000 ,  70.000000 ,  -20.000000 ,  1.006000 , 0,  100.000000 , 0, 1, 0, 0, 1,  1 , 100,  100.000000 ,  0.000000 , 1, 1
  80 ,  37 ,  477.000000 ,  0.000000 ,  280.000000 ,  -165.000000 ,  1.040000 , 0,  100.000000 , 0, 1, 0, 0, 1,  1 , 100,  577.000000 ,  0.000000 , 1, 1
  85 ,  38 ,  0.000000 ,  0.000000 ,  23.000000 ,  -8.000000 ,  0.985000 , 0,  100.000000 , 0, 1, 0, 0, 1,  1 , 100,  100.000000 ,  0.000000 , 1, 1
  87 ,  39 ,  4.000000 ,  0.000000 ,  1000.000000 ,  -100.000000 ,  1.015000 , 0,  100.000000 , 0, 1, 0, 0, 1,  1 , 100,  104.000000 ,  0.000000 , 1, 1
  89 ,  40 ,  607.000000 ,  0.000000 ,  300.000000 ,  -210.000000 ,  1.005000 , 0,  100.000000 , 0, 1, 0, 0, 1,  1 , 100,  707.000000 ,  0.000000 , 1, 1
  90 ,  41 ,  0.000000 ,  0.000000 ,  300.000000 ,  -300.000000 ,  0.985000 , 0,  100.000000 , 0, 1, 0, 0, 1,  1 , 100,  100.000000 ,  0.000000 , 1, 1
  91 ,  42 ,  0.000000 ,  0.000000 ,  100.000000 ,  -100.000000 ,  0.980000 , 0,  100.000000 , 0, 1, 0, 0, 1,  1 , 100,  100.000000 ,  0.000000 , 1, 1
  92 ,  43 ,  0.000000 ,  0.000000 ,  9.000000 ,  -3.000000 ,  0.990000 , 0,  100.000000 , 0, 1, 0, 0, 1,  1 , 100,  100.000000 ,  0.000000 , 1, 1
  99 ,  44 ,  0.000000 ,  0.000000 ,  100.000000 ,  -100.000000 ,  1.010000 , 0,  100.000000 , 0, 1, 0, 0, 1,  1 , 100,  100.000000 ,  0.000000 , 1, 1
  100 ,  45 ,  252.000000 ,  0.000000 ,  155.000000 ,  -50.000000 ,  1.017000 , 0,  100.000000 , 0, 1, 0, 0, 1,  1 , 100,  352.000000 ,  0.000000 , 1, 1
  103 ,  46 ,  40.000000 ,  0.000000 ,  40.000000 ,  -15.000000 ,  1.010000 , 0,  100.000000 , 0, 1, 0, 0, 1,  1 , 100,  140.000000 ,  0.000000 , 1, 1
  104 ,  47 ,  0.000000 ,  0.000000 ,  23.000000 ,  -8.000000 ,  0.971000 , 0,  100.000000 , 0, 1, 0, 0, 1,  1 , 100,  100.000000 ,  0.000000 , 1, 1
  105 ,  48 ,  0.000000 ,  0.000000 ,  23.000000 ,  -8.000000 ,  0.965000 , 0,  100.000000 , 0, 1, 0, 0, 1,  1 , 100,  100.000000 ,  0.000000 , 1, 1
  107 ,  49 ,  0.000000 ,  0.000000 ,  200.000000 ,  -200.000000 ,  0.952000 , 0,  100.000000 , 0, 1, 0, 0, 1,  1 , 100,  100.000000 ,  0.000000 , 1, 1
  110 ,  50 ,  0.000000 ,  0.000000 ,  23.000000 ,  -8.000000 ,  0.973000 , 0,  100.000000 , 0, 1, 0, 0, 1,  1 , 100,  100.000000 ,  0.000000 , 1, 1
  111 ,  51 ,  36.000000 ,  0.000000 ,  1000.000000 ,  -100.000000 ,  0.980000 , 0,  100.000000 , 0, 1, 0, 0, 1,  1 , 100,  136.000000 ,  0.000000 , 1, 1
  112 ,  52 ,  0.000000 ,  0.000000 ,  1000.000000 ,  -100.000000 ,  0.975000 , 0,  100.000000 , 0, 1, 0, 0, 1,  1 , 100,  100.000000 ,  0.000000 , 1, 1
  113 ,  53 ,  0.000000 ,  0.000000 ,  200.000000 ,  -100.000000 ,  0.993000 , 0,  100.000000 , 0, 1, 0, 0, 1,  1 , 100,  100.000000 ,  0.000000 , 1, 1
  116 ,  54 ,  0.000000 ,  0.000000 ,  1000.000000 ,  -1000.000000 ,  1.005000 , 0,  100.000000 , 0, 1, 0, 0, 1,  1 , 100,  100.000000 ,  0.000000 , 1, 1
0 / END OF GENERATOR DATA, BEGIN BRANCH DATA
  1 ,  2 ,  1 ,  0.030300 ,  0.099900 ,  0.025400 ,  9900.000000 ,  0.000000 ,  0.000000 ,  0, 0, 0, 0,  1 , 0, 1, 1
  1 ,  3 ,  1 ,  0.012900 ,  0.042400 ,  0.010820 ,  9900.000000 ,  0.000000 ,  0.000000 ,  0, 0, 0, 0,  1 , 0, 1, 1
  2 ,  12 ,  1 ,  0.018700 ,  0.061600 ,  0.015720 ,  9900.000000 ,  0.000000 ,  0.000000 ,  0, 0, 0, 0,  1 , 0, 1, 1
  3 ,  5 ,  1 ,  0.024100 ,  0.108000 ,  0.028400 ,  9900.000000 ,  0.000000 ,  0.000000 ,  0, 0, 0, 0,  1 , 0, 1, 1
  3 ,  12 ,  1 ,  0.048400 ,  0.160000 ,  0.040600 ,  9900.000000 ,  0.000000 ,  0.000000 ,  0, 0, 0, 0,  1 , 0, 1, 1
  4 ,  5 ,  1 ,  0.001760 ,  0.007980 ,  0.002100 ,  9900.000000 ,  0.000000 ,  0.000000 ,  0, 0, 0, 0,  1 , 0, 1, 1
  4 ,  11 ,  1 ,  0.020900 ,  0.068800 ,  0.017480 ,  9900.000000 ,  0.000000 ,  0.000000 ,  0, 0, 0, 0,  1 , 0, 1, 1
  5 ,  6 ,  1 ,  0.011900 ,  0.054000 ,  0.014260 ,  9900.000000 ,  0.000000 ,  0.000000 ,  0, 0, 0, 0,  1 , 0, 1, 1
  5 ,  11 ,  1 ,  0.020300 ,  0.068200 ,  0.017380 ,  9900.000000 ,  0.000000 ,  0.000000 ,  0, 0, 0, 0,  1 , 0, 1, 1
  6 ,  7 ,  1 ,  0.004590 ,  0.020800 ,  0.005500 ,  9900.000000 ,  0.000000 ,  0.000000 ,  0, 0, 0, 0,  1 , 0, 1, 1
  7 ,  12 ,  1 ,  0.008620 ,  0.034000 ,  0.008740 ,  9900.000000 ,  0.000000 ,  0.000000 ,  0, 0, 0, 0,  1 , 0, 1, 1
  8 ,  9 ,  1 ,  0.002440 ,  0.030500 ,  1.162000 ,  9900.000000 ,  0.000000 ,  0.000000 ,  0, 0, 0, 0,  1 , 0, 1, 1
  8 ,  30 ,  1 ,  0.004310 ,  0.050400 ,  0.514000 ,  9900.000000 ,  0.000000 ,  0.000000 ,  0, 0, 0, 0,  1 , 0, 1, 1
  9 ,  10 ,  1 ,  0.002580 ,  0.032200 ,  1.230000 ,  9900.000000 ,  0.000000 ,  0.000000 ,  0, 0, 0, 0,  1 , 0, 1, 1
  11 ,  12 ,  1 ,  0.005950 ,  0.019600 ,  0.005020 ,  9900.000000 ,  0.000000 ,  0.000000 ,  0, 0, 0, 0,  1 , 0, 1, 1
  11 ,  13 ,  1 ,  0.022250 ,  0.073100 ,  0.018760 ,  9900.000000 ,  0.000000 ,  0.000000 ,  0, 0, 0, 0,  1 , 0, 1, 1
  12 ,  14 ,  1 ,  0.021500 ,  0.070700 ,  0.018160 ,  9900.000000 ,  0.000000 ,  0.000000 ,  0, 0, 0, 0,  1 , 0, 1, 1
  12 ,  16 ,  1 ,  0.021200 ,  0.083400 ,  0.021400 ,  9900.000000 ,  0.000000 ,  0.000000 ,  0, 0, 0, 0,  1 , 0, 1, 1
  12 ,  117 ,  1 ,  0.032900 ,  0.140000 ,  0.035800 ,  9900.000000 ,  0.000000 ,  0.000000 ,  0, 0, 0, 0,  1 , 0, 1, 1
  13 ,  15 ,  1 ,  0.074400 ,  0.244400 ,  0.062680 ,  9900.000000 ,  0.000000 ,  0.000000 ,  0, 0, 0, 0,  1 , 0, 1, 1
  14 ,  15 ,  1 ,  0.059500 ,  0.195000 ,  0.050200 ,  9900.000000 ,  0.000000 ,  0.000000 ,  0, 0, 0, 0,  1 , 0, 1, 1
  15 ,  17 ,  1 ,  0.013200 ,  0.043700 ,  0.044400 ,  9900.000000 ,  0.000000 ,  0.000000 ,  0, 0, 0, 0,  1 , 0, 1, 1
  15 ,  19 ,  1 ,  0.012000 ,  0.039400 ,  0.010100 ,  9900.000000 ,  0.000000 ,  0.000000 ,  0, 0, 0, 0,  1 , 0, 1, 1
  15 ,  33 ,  1 ,  0.038000 ,  0.124400 ,  0.031940 ,  9900.000000 ,  0.000000 ,  0.000000 ,  0, 0, 0, 0,  1 , 0, 1, 1
  16 ,  17 ,  1 ,  0.045400 ,  0.180100 ,  0.046600 ,  9900.000000 ,  0.000000 ,  0.000000 ,  0, 0, 0, 0,  1 , 0, 1, 1
  17 ,  18 ,  1 ,  0.012300 ,  0.050500 ,  0.012980 ,  9900.000000 ,  0.000000 ,  0.000000 ,  0, 0, 0, 0,  1 , 0, 1, 1
  17 ,  31 ,  1 ,  0.047400 ,  0.156300 ,  0.039900 ,  9900.000000 ,  0.000000 ,  0.000000 ,  0, 0, 0, 0,  1 , 0, 1, 1
  17 ,  113 ,  1 ,  0.009130 ,  0.030100 ,  0.007680 ,  9900.000000 ,  0.000000 ,  0.000000 ,  0, 0, 0, 0,  1 , 0, 1, 1
  18 ,  19 ,  1 ,  0.011190 ,  0.049300 ,  0.011420 ,  9900.000000 ,  0.000000 ,  0.000000 ,  0, 0, 0, 0,  1 , 0, 1, 1
  19 ,  20 ,  1 ,  0.025200 ,  0.117000 ,  0.029800 ,  9900.000000 ,  0.000000 ,  0.000000 ,  0, 0, 0, 0,  1 , 0, 1, 1
  19 ,  34 ,  1 ,  0.075200 ,  0.247000 ,  0.063200 ,  9900.000000 ,  0.000000 ,  0.000000 ,  0, 0, 0, 0,  1 , 0, 1, 1
  20 ,  21 ,  1 ,  0.018300 ,  0.084900 ,  0.021600 ,  9900.000000 ,  0.000000 ,  0.000000 ,  0, 0, 0, 0,  1 , 0, 1, 1
  21 ,  22 ,  1 ,  0.020900 ,  0.097000 ,  0.024600 ,  9900.000000 ,  0.000000 ,  0.000000 ,  0, 0, 0, 0,  1 , 0, 1, 1
  22 ,  23 ,  1 ,  0.034200 ,  0.159000 ,  0.040400 ,  9900.000000 ,  0.000000 ,  0.000000 ,  0, 0, 0, 0,  1 , 0, 1, 1
  23 ,  24 ,  1 ,  0.013500 ,  0.049200 ,  0.049800 ,  9900.000000 ,  0.000000 ,  0.000000 ,  0, 0, 0, 0,  1 , 0, 1, 1
  23 ,  25 ,  1 ,  0.015600 ,  0.080000 ,  0.086400 ,  9900.000000 ,  0.000000 ,  0.000000 ,  0, 0, 0, 0,  1 , 0, 1, 1
  23 ,  32 ,  1 ,  0.031700 ,  0.115300 ,  0.117300 ,  9900.000000 ,  0.000000 ,  0.000000 ,  0, 0, 0, 0,  1 , 0, 1, 1
  24 ,  70 ,  1 ,  0.002210 ,  0.411500 ,  0.101980 ,  9900.000000 ,  0.000000 ,  0.000000 ,  0, 0, 0, 0,  1 , 0, 1, 1
  24 ,  72 ,  1 ,  0.048800 ,  0.196000 ,  0.048800 ,  9900.000000 ,  0.000000 ,  0.000000 ,  0, 0, 0, 0,  1 , 0, 1, 1
  25 ,  27 ,  1 ,  0.031800 ,  0.163000 ,  0.176400 ,  9900.000000 ,  0.000000 ,  0.000000 ,  0, 0, 0, 0,  1 , 0, 1, 1
  26 ,  30 ,  1 ,  0.007990 ,  0.086000 ,  0.908000 ,  9900.000000 ,  0.000000 ,  0.000000 ,  0, 0, 0, 0,  1 , 0, 1, 1
  27 ,  28 ,  1 ,  0.019130 ,  0.085500 ,  0.021600 ,  9900.000000 ,  0.000000 ,  0.000000 ,  0, 0, 0, 0,  1 , 0, 1, 1
  27 ,  32 ,  1 ,  0.022900 ,  0.075500 ,  0.019260 ,  9900.000000 ,  0.000000 ,  0.000000 ,  0, 0, 0, 0,  1 , 0, 1, 1
  27 ,  115 ,  1 ,  0.016400 ,  0.074100 ,  0.019720 ,  9900.000000 ,  0.000000 ,  0.000000 ,  0, 0, 0, 0,  1 , 0, 1, 1
  28 ,  29 ,  1 ,  0.023700 ,  0.094300 ,  0.023800 ,  9900.000000 ,  0.000000 ,  0.000000 ,  0, 0, 0, 0,  1 , 0, 1, 1
  29 ,  31 ,  1 ,  0.010800 ,  0.033100 ,  0.008300 ,  9900.000000 ,  0.000000 ,  0.000000 ,  0, 0, 0, 0,  1 , 0, 1, 1
  30 ,  38 ,  1 ,  0.004640 ,  0.054000 ,  0.422000 ,  9900.000000 ,  0.000000 ,  0.000000 ,  0, 0, 0, 0,  1 , 0, 1, 1
  31 ,  32 ,  1 ,  0.029800 ,  0.098500 ,  0.025100 ,  9900.000000 ,  0.000000 ,  0.000000 ,  0, 0, 0, 0,  1 , 0, 1, 1
  32 ,  113 ,  1 ,  0.061500 ,  0.203000 ,  0.051800 ,  9900.000000 ,  0.000000 ,  0.000000 ,  0, 0, 0, 0,  1 , 0, 1, 1
  32 ,  114 ,  1 ,  0.013500 ,  0.061200 ,  0.016280 ,  9900.000000 ,  0.000000 ,  0.000000 ,  0, 0, 0, 0,  1 , 0, 1, 1
  33 ,  37 ,  1 ,  0.041500 ,  0.142000 ,  0.036600 ,  9900.000000 ,  0.000000 ,  0.000000 ,  0, 0, 0, 0,  1 , 0, 1, 1
  34 ,  36 ,  1 ,  0.008710 ,  0.026800 ,  0.005680 ,  9900.000000 ,  0.000000 ,  0.000000 ,  0, 0, 0, 0,  1 , 0, 1, 1
  34 ,  37 ,  1 ,  0.002560 ,  0.009400 ,  0.009840 ,  9900.000000 ,  0.000000 ,  0.000000 ,  0, 0, 0, 0,  1 , 0, 1, 1
  34 ,  43 ,  1 ,  0.041300 ,  0.168100 ,  0.042260 ,  9900.000000 ,  0.000000 ,  0.000000 ,  0, 0, 0, 0,  1 , 0, 1, 1
  35 ,  36 ,  1 ,  0.002240 ,  0.010200 ,  0.002680 ,  9900.000000 ,  0.000000 ,  0.000000 ,  0, 0, 0, 0,  1 , 0, 1, 1
  35 ,  37 ,  1 ,  0.011000 ,  0.049700 ,  0.013180 ,  9900.000000 ,  0.000000 ,  0.000000 ,  0, 0, 0, 0,  1 , 0, 1, 1
  37 ,  39 ,  1 ,  0.032100 ,  0.106000 ,  0.027000 ,  9900.000000 ,  0.000000 ,  0.000000 ,  0, 0, 0, 0,  1 , 0, 1, 1
  37 ,  40 ,  1 ,  0.059300 ,  0.168000 ,  0.042000 ,  9900.000000 ,  0.000000 ,  0.000000 ,  0, 0, 0, 0,  1 , 0, 1, 1
  38 ,  65 ,  1 ,  0.009010 ,  0.098600 ,  1.046000 ,  9900.000000 ,  0.000000 ,  0.000000 ,  0, 0, 0, 0,  1 , 0, 1, 1
  39 ,  40 ,  1 ,  0.018400 ,  0.060500 ,  0.015520 ,  9900.000000 ,  0.000000 ,  0.000000 ,  0, 0, 0, 0,  1 , 0, 1, 1
  40 ,  41 ,  1 ,  0.014500 ,  0.048700 ,  0.012220 ,  9900.000000 ,  0.000000 ,  0.000000 ,  0, 0, 0, 0,  1 , 0, 1, 1
  40 ,  42 ,  1 ,  0.055500 ,  0.183000 ,  0.046600 ,  9900.000000 ,  0.000000 ,  0.000000 ,  0, 0, 0, 0,  1 , 0, 1, 1
  41 ,  42 ,  1 ,  0.041000 ,  0.135000 ,  0.034400 ,  9900.000000 ,  0.000000 ,  0.000000 ,  0, 0, 0, 0,  1 , 0, 1, 1
  42 ,  49 ,  1 ,  0.071500 ,  0.323000 ,  0.086000 ,  9900.000000 ,  0.000000 ,  0.000000 ,  0, 0, 0, 0,  1 , 0, 1, 1
  42 ,  49 ,  2 ,  0.071500 ,  0.323000 ,  0.086000 ,  9900.000000 ,  0.000000 ,  0.000000 ,  0, 0, 0, 0,  1 , 0, 1, 1
  43 ,  44 ,  1 ,  0.060800 ,  0.245400 ,  0.060680 ,  9900.000000 ,  0.000000 ,  0.000000 ,  0, 0, 0, 0,  1 , 0, 1, 1
  44 ,  45 ,  1 ,  0.022400 ,  0.090100 ,  0.022400 ,  9900.000000 ,  0.000000 ,  0.000000 ,  0, 0, 0, 0,  1 , 0, 1, 1
  45 ,  46 ,  1 ,  0.040000 ,  0.135600 ,  0.033200 ,  9900.000000 ,  0.000000 ,  0.000000 ,  0, 0, 0, 0,  1 , 0, 1, 1
  45 ,  49 ,  1 ,  0.068400 ,  0.186000 ,  0.044400 ,  9900.000000 ,  0.000000 ,  0.000000 ,  0, 0, 0, 0,  1 , 0, 1, 1
  46 ,  47 ,  1 ,  0.038000 ,  0.127000 ,  0.031600 ,  9900.000000 ,  0.000000 ,  0.000000 ,  0, 0, 0, 0,  1 , 0, 1, 1
  46 ,  48 ,  1 ,  0.060100 ,  0.189000 ,  0.047200 ,  9900.000000 ,  0.000000 ,  0.000000 ,  0, 0, 0, 0,  1 , 0, 1, 1
  47 ,  49 ,  1 ,  0.019100 ,  0.062500 ,  0.016040 ,  9900.000000 ,  0.000000 ,  0.000000 ,  0, 0, 0, 0,  1 , 0, 1, 1
  47 ,  69 ,  1 ,  0.084400 ,  0.277800 ,  0.070920 ,  9900.000000 ,  0.000000 ,  0.000000 ,  0, 0, 0, 0,  1 , 0, 1, 1
  48 ,  49 ,  1 ,  0.017900 ,  0.050500 ,  0.012580 ,  9900.000000 ,  0.000000 ,  0.000000 ,  0, 0, 0, 0,  1 , 0, 1, 1
  49 ,  50 ,  1 ,  0.026700 ,  0.075200 ,  0.018740 ,  9900.000000 ,  0.000000 ,  0.000000 ,  0, 0, 0, 0,  1 , 0, 1, 1
  49 ,  51 ,  1 ,  0.048600 ,  0.137000 ,  0.034200 ,  9900.000000 ,  0.000000 ,  0.000000 ,  0, 0, 0, 0,  1 , 0, 1, 1
  49 ,  54 ,  1 ,  0.073000 ,  0.289000 ,  0.073800 ,  9900.000000 ,  0.000000 ,  0.000000 ,  0, 0, 0, 0,  1 , 0, 1, 1
  49 ,  54 ,  2 ,  0.086900 ,  0.291000 ,  0.073000 ,  9900.000000 ,  0.000000 ,  0.000000 ,  0, 0, 0, 0,  1 , 0, 1, 1
  49 ,  66 ,  1 ,  0.018000 ,  0.091900 ,  0.024800 ,  9900.000000 ,  0.000000 ,  0.000000 ,  0, 0, 0, 0,  1 , 0, 1, 1
  49 ,  66 ,  2 ,  0.018000 ,  0.091900 ,  0.024800 ,  9900.000000 ,  0.000000 ,  0.000000 ,  0, 0, 0, 0,  1 , 0, 1, 1
  49 ,  69 ,  1 ,  0.098500 ,  0.324000 ,  0.082800 ,  9900.000000 ,  0.000000 ,  0.000000 ,  0, 0, 0, 0,  1 , 0, 1, 1
  50 ,  57 ,  1 ,  0.047400 ,  0.134000 ,  0.033200 ,  9900.000000 ,  0.000000 ,  0.000000 ,  0, 0, 0, 0,  1 , 0, 1, 1
  51 ,  52 ,  1 ,  0.020300 ,  0.058800 ,  0.013960 ,  9900.000000 ,  0.000000 ,  0.000000 ,  0, 0, 0, 0,  1 , 0, 1, 1
  51 ,  58 ,  1 ,  0.025500 ,  0.071900 ,  0.017880 ,  9900.000000 ,  0.000000 ,  0.000000 ,  0, 0, 0, 0,  1 , 0, 1, 1
  52 ,  53 ,  1 ,  0.040500 ,  0.163500 ,  0.040580 ,  9900.000000 ,  0.000000 ,  0.000000 ,  0, 0, 0, 0,  1 , 0, 1, 1
  53 ,  54 ,  1 ,  0.026300 ,  0.122000 ,  0.031000 ,  9900.000000 ,  0.000000 ,  0.000000 ,  0, 0, 0, 0,  1 , 0, 1, 1
  54 ,  55 ,  1 ,  0.016900 ,  0.070700 ,  0.020200 ,  9900.000000 ,  0.000000 ,  0.000000 ,  0, 0, 0, 0,  1 , 0, 1, 1
  54 ,  56 ,  1 ,  0.002750 ,  0.009550 ,  0.007320 ,  9900.000000 ,  0.000000 ,  0.000000 ,  0, 0, 0, 0,  1 , 0, 1, 1
  54 ,  59 ,  1 ,  0.050300 ,  0.229300 ,  0.059800 ,  9900.000000 ,  0.000000 ,  0.000000 ,  0, 0, 0, 0,  1 , 0, 1, 1
  55 ,  56 ,  1 ,  0.004880 ,  0.015100 ,  0.003740 ,  9900.000000 ,  0.000000 ,  0.000000 ,  0, 0, 0, 0,  1 , 0, 1, 1
  55 ,  59 ,  1 ,  0.047390 ,  0.215800 ,  0.056460 ,  9900.000000 ,  0.000000 ,  0.000000 ,  0, 0, 0, 0,  1 , 0, 1, 1
  56 ,  57 ,  1 ,  0.034300 ,  0.096600 ,  0.024200 ,  9900.000000 ,  0.000000 ,  0.000000 ,  0, 0, 0, 0,  1 , 0, 1, 1
  56 ,  58 ,  1 ,  0.034300 ,  0.096600 ,  0.024200 ,  9900.000000 ,  0.000000 ,  0.000000 ,  0, 0, 0, 0,  1 , 0, 1, 1
  56 ,  59 ,  1 ,  0.082500 ,  0.251000 ,  0.056900 ,  9900.000000 ,  0.000000 ,  0.000000 ,  0, 0, 0, 0,  1 , 0, 1, 1
  56 ,  59 ,  2 ,  0.080300 ,  0.239000 ,  0.053600 ,  9900.000000 ,  0.000000 ,  0.000000 ,  0, 0, 0, 0,  1 , 0, 1, 1
  59 ,  60 ,  1 ,  0.031700 ,  0.145000 ,  0.037600 ,  9900.000000 ,  0.000000 ,  0.000000 ,  0, 0, 0, 0,  1 , 0, 1, 1
  59 ,  61 ,  1 ,  0.032800 ,  0.150000 ,  0.038800 ,  9900.000000 ,  0.000000 ,  0.000000 ,  0, 0, 0, 0,  1 , 0, 1, 1
  60 ,  61 ,  1 ,  0.002640 ,  0.013500 ,  0.014560 ,  9900.000000 ,  0.000000 ,  0.000000 ,  0, 0, 0, 0,  1 , 0, 1, 1
  60 ,  62 ,  1 ,  0.012300 ,  0.056100 ,  0.014680 ,  9900.000000 ,  0.000000 ,  0.000000 ,  0, 0, 0, 0,  1 , 0, 1, 1
  61 ,  62 ,  1 ,  0.008240 ,  0.037600 ,  0.009800 ,  9900.000000 ,  0.000000 ,  0.000000 ,  0, 0, 0, 0,  1 , 0, 1, 1
  62 ,  66 ,  1 ,  0.048200 ,  0.218000 ,  0.057800 ,  9900.000000 ,  0.000000 ,  0.000000 ,  0, 0, 0, 0,  1 , 0, 1, 1
  62 ,  67 ,  1 ,  0.025800 ,  0.117000 ,  0.031000 ,  9900.000000 ,  0.000000 ,  0.000000 ,  0, 0, 0, 0,  1 , 0, 1, 1
  63 ,  64 ,  1 ,  0.001720 ,  0.020000 ,  0.216000 ,  9900.000000 ,  0.000000 ,  0.000000 ,  0, 0, 0, 0,  1 , 0, 1, 1
  64 ,  65 ,  1 ,  0.002690 ,  0.030200 ,  0.380000 ,  9900.000000 ,  0.000000 ,  0.000000 ,  0, 0, 0, 0,  1 , 0, 1, 1
  65 ,  68 ,  1 ,  0.001380 ,  0.016000 ,  0.638000 ,  9900.000000 ,  0.000000 ,  0.000000 ,  0, 0, 0, 0,  1 , 0, 1, 1
  66 ,  67 ,  1 ,  0.022400 ,  0.101500 ,  0.026820 ,  9900.000000 ,  0.000000 ,  0.000000 ,  0, 0, 0, 0,  1 , 0, 1, 1
  68 ,  81 ,  1 ,  0.001750 ,  0.020200 ,  0.808000 ,  9900.000000 ,  0.000000 ,  0.000000 ,  0, 0, 0, 0,  1 , 0, 1, 1
  68 ,  116 ,  1 ,  0.000340 ,  0.004050 ,  0.164000 ,  9900.000000 ,  0.000000 ,  0.000000 ,  0, 0, 0, 0,  1 , 0, 1, 1
  69 ,  70 ,  1 ,  0.030000 ,  0.127000 ,  0.122000 ,  9900.000000 ,  0.000000 ,  0.000000 ,  0, 0, 0, 0,  1 , 0, 1, 1
  69 ,  75 ,  1 ,  0.040500 ,  0.122000 ,  0.124000 ,  9900.000000 ,  0.000000 ,  0.000000 ,  0, 0, 0, 0,  1 , 0, 1, 1
  69 ,  77 ,  1 ,  0.030900 ,  0.101000 ,  0.103800 ,  9900.000000 ,  0.000000 ,  0.000000 ,  0, 0, 0, 0,  1 , 0, 1, 1
  70 ,  71 ,  1 ,  0.008820 ,  0.035500 ,  0.008780 ,  9900.000000 ,  0.000000 ,  0.000000 ,  0, 0, 0, 0,  1 , 0, 1, 1
  70 ,  74 ,  1 ,  0.040100 ,  0.132300 ,  0.033680 ,  9900.000000 ,  0.000000 ,  0.000000 ,  0, 0, 0, 0,  1 , 0, 1, 1
  70 ,  75 ,  1 ,  0.042800 ,  0.141000 ,  0.036000 ,  9900.000000 ,  0.000000 ,  0.000000 ,  0, 0, 0, 0,  1 , 0, 1, 1
  71 ,  72 ,  1 ,  0.044600 ,  0.180000 ,  0.044440 ,  9900.000000 ,  0.000000 ,  0.000000 ,  0, 0, 0, 0,  1 , 0, 1, 1
  71 ,  73 ,  1 ,  0.008660 ,  0.045400 ,  0.011780 ,  9900.000000 ,  0.000000 ,  0.000000 ,  0, 0, 0, 0,  1 , 0, 1, 1
  74 ,  75 ,  1 ,  0.012300 ,  0.040600 ,  0.010340 ,  9900.000000 ,  0.000000 ,  0.000000 ,  0, 0, 0, 0,  1 , 0, 1, 1
  75 ,  77 ,  1 ,  0.060100 ,  0.199900 ,  0.049780 ,  9900.000000 ,  0.000000 ,  0.000000 ,  0, 0, 0, 0,  1 , 0, 1, 1
  75 ,  118 ,  1 ,  0.014500 ,  0.048100 ,  0.011980 ,  9900.000000 ,  0.000000 ,  0.000000 ,  0, 0, 0, 0,  1 , 0, 1, 1
  76 ,  77 ,  1 ,  0.044400 ,  0.148000 ,  0.036800 ,  9900.000000 ,  0.000000 ,  0.000000 ,  0, 0, 0, 0,  1 , 0, 1, 1
  76 ,  118 ,  1 ,  0.016400 ,  0.054400 ,  0.013560 ,  9900.000000 ,  0.000000 ,  0.000000 ,  0, 0, 0, 0,  1 , 0, 1, 1
  77 ,  78 ,  1 ,  0.003760 ,  0.012400 ,  0.012640 ,  9900.000000 ,  0.000000 ,  0.000000 ,  0, 0, 0, 0,  1 , 0, 1, 1
  77 ,  80 ,  1 ,  0.017000 ,  0.048500 ,  0.047200 ,  9900.000000 ,  0.000000 ,  0.000000 ,  0, 0, 0, 0,  1 , 0, 1, 1
  77 ,  80 ,  2 ,  0.029400 ,  0.105000 ,  0.022800 ,  9900.000000 ,  0.000000 ,  0.000000 ,  0, 0, 0, 0,  1 , 0, 1, 1
  77 ,  82 ,  1 ,  0.029800 ,  0.085300 ,  0.081740 ,  9900.000000 ,  0.000000 ,  0.000000 ,  0, 0, 0, 0,  1 , 0, 1, 1
  78 ,  79 ,  1 ,  0.005460 ,  0.024400 ,  0.006480 ,  9900.000000 ,  0.000000 ,  0.000000 ,  0, 0, 0, 0,  1 , 0, 1, 1
  79 ,  80 ,  1 ,  0.015600 ,  0.070400 ,  0.018700 ,  9900.000000 ,  0.000000 ,  0.000000 ,  0, 0, 0, 0,  1 , 0, 1, 1
  80 ,  96 ,  1 ,  0.035600 ,  0.182000 ,  0.049400 ,  9900.000000 ,  0.000000 ,  0.000000 ,  0, 0, 0, 0,  1 , 0, 1, 1
  80 ,  97 ,  1 ,  0.018300 ,  0.093400 ,  0.025400 ,  9900.000000 ,  0.000000 ,  0.000000 ,  0, 0, 0, 0,  1 , 0, 1, 1
  80 ,  98 ,  1 ,  0.023800 ,  0.108000 ,  0.028600 ,  9900.000000 ,  0.000000 ,  0.000000 ,  0, 0, 0, 0,  1 , 0, 1, 1
  80 ,  99 ,  1 ,  0.045400 ,  0.206000 ,  0.054600 ,  9900.000000 ,  0.000000 ,  0.000000 ,  0, 0, 0, 0,  1 , 0, 1, 1
  82 ,  83 ,  1 ,  0.011200 ,  0.036650 ,  0.037960 ,  9900.000000 ,  0.000000 ,  0.000000 ,  0, 0, 0, 0,  1 , 0, 1, 1
  82 ,  96 ,  1 ,  0.016200 ,  0.053000 ,  0.054400 ,  9900.000000 ,  0.000000 ,  0.000000 ,  0, 0, 0, 0,  1 , 0, 1, 1
  83 ,  84 ,  1 ,  0.062500 ,  0.132000 ,  0.025800 ,  9900.000000 ,  0.000000 ,  0.000000 ,  0, 0, 0, 0,  1 , 0, 1, 1
  83 ,  85 ,  1 ,  0.043000 ,  0.148000 ,  0.034800 ,  9900.000000 ,  0.000000 ,  0.000000 ,  0, 0, 0, 0,  1 , 0, 1, 1
  84 ,  85 ,  1 ,  0.030200 ,  0.064100 ,  0.012340 ,  9900.000000 ,  0.000000 ,  0.000000 ,  0, 0, 0, 0,  1 , 0, 1, 1
  85 ,  86 ,  1 ,  0.035000 ,  0.123000 ,  0.027600 ,  9900.000000 ,  0.000000 ,  0.000000 ,  0, 0, 0, 0,  1 , 0, 1, 1
  85 ,  88 ,  1 ,  0.020000 ,  0.102000 ,  0.027600 ,  9900.000000 ,  0.000000 ,  0.000000 ,  0, 0, 0, 0,  1 , 0, 1, 1
  85 ,  89 ,  1 ,  0.023900 ,  0.173000 ,  0.047000 ,  9900.000000 ,  0.000000 ,  0.000000 ,  0, 0, 0, 0,  1 , 0, 1, 1
  86 ,  87 ,  1 ,  0.028280 ,  0.207400 ,  0.044500 ,  9900.000000 ,  0.000000 ,  0.000000 ,  0, 0, 0, 0,  1 , 0, 1, 1
  88 ,  89 ,  1 ,  0.013900 ,  0.071200 ,  0.019340 ,  9900.000000 ,  0.000000 ,  0.000000 ,  0, 0, 0, 0,  1 , 0, 1, 1
  89 ,  90 ,  1 ,  0.051800 ,  0.188000 ,  0.052800 ,  9900.000000 ,  0.000000 ,  0.000000 ,  0, 0, 0, 0,  1 , 0, 1, 1
  89 ,  90 ,  2 ,  0.023800 ,  0.099700 ,  0.106000 ,  9900.000000 ,  0.000000 ,  0.000000 ,  0, 0, 0, 0,  1 , 0, 1, 1
  89 ,  92 ,  1 ,  0.009900 ,  0.050500 ,  0.054800 ,  9900.000000 ,  0.000000 ,  0.000000 ,  0, 0, 0, 0,  1 , 0, 1, 1
  89 ,  92 ,  2 ,  0.039300 ,  0.158100 ,  0.041400 ,  9900.000000 ,  0.000000 ,  0.000000 ,  0, 0, 0, 0,  1 , 0, 1, 1
  90 ,  91 ,  1 ,  0.025400 ,  0.083600 ,  0.021400 ,  9900.000000 ,  0.000000 ,  0.000000 ,  0, 0, 0, 0,  1 , 0, 1, 1
  91 ,  92 ,  1 ,  0.038700 ,  0.127200 ,  0.032680 ,  9900.000000 ,  0.000000 ,  0.000000 ,  0, 0, 0, 0,  1 , 0, 1, 1
  92 ,  93 ,  1 ,  0.025800 ,  0.084800 ,  0.021800 ,  9900.000000 ,  0.000000 ,  0.000000 ,  0, 0, 0, 0,  1 , 0, 1, 1
  92 ,  94 ,  1 ,  0.048100 ,  0.158000 ,  0.040600 ,  9900.000000 ,  0.000000 ,  0.000000 ,  0, 0, 0, 0,  1 , 0, 1, 1
  92 ,  100 ,  1 ,  0.064800 ,  0.295000 ,  0.047200 ,  9900.000000 ,  0.000000 ,  0.000000 ,  0, 0, 0, 0,  1 , 0, 1, 1
  92 ,  102 ,  1 ,  0.012300 ,  0.055900 ,  0.014640 ,  9900.000000 ,  0.000000 ,  0.000000 ,  0, 0, 0, 0,  1 , 0, 1, 1
  93 ,  94 ,  1 ,  0.022300 ,  0.073200 ,  0.018760 ,  9900.000000 ,  0.000000 ,  0.000000 ,  0, 0, 0, 0,  1 , 0, 1, 1
  94 ,  95 ,  1 ,  0.013200 ,  0.043400 ,  0.011100 ,  9900.000000 ,  0.000000 ,  0.000000 ,  0, 0, 0, 0,  1 , 0, 1, 1
  94 ,  96 ,  1 ,  0.026900 ,  0.086900 ,  0.023000 ,  9900.000000 ,  0.000000 ,  0.000000 ,  0, 0, 0, 0,  1 , 0, 1, 1
  94 ,  100 ,  1 ,  0.017800 ,  0.058000 ,  0.060400 ,  9900.000000 ,  0.000000 ,  0.000000 ,  0, 0, 0, 0,  1 , 0, 1, 1
  95 ,  96 ,  1 ,  0.017100 ,  0.054700 ,  0.014740 ,  9900.000000 ,  0.000000 ,  0.000000 ,  0, 0, 0, 0,  1 , 0, 1, 1
  96 ,  97 ,  1 ,  0.017300 ,  0.088500 ,  0.024000 ,  9900.000000 ,  0.000000 ,  0.000000 ,  0, 0, 0, 0,  1 , 0, 1, 1
  98 ,  100 ,  1 ,  0.039700 ,  0.179000 ,  0.047600 ,  9900.000000 ,  0.000000 ,  0.000000 ,  0, 0, 0, 0,  1 , 0, 1, 1
  99 ,  100 ,  1 ,  0.018000 ,  0.081300 ,  0.021600 ,  9900.000000 ,  0.000000 ,  0.000000 ,  0, 0, 0, 0,  1 , 0, 1, 1
  100 ,  101 ,  1 ,  0.027700 ,  0.126200 ,  0.032800 ,  9900.000000 ,  0.000000 ,  0.000000 ,  0, 0, 0, 0,  1 , 0, 1, 1
  100 ,  103 ,  1 ,  0.016000 ,  0.052500 ,  0.053600 ,  9900.000000 ,  0.000000 ,  0.000000 ,  0, 0, 0, 0,  1 , 0, 1, 1
  100 ,  104 ,  1 ,  0.045100 ,  0.204000 ,  0.054100 ,  9900.000000 ,  0.000000 ,  0.000000 ,  0, 0, 0, 0,  1 , 0, 1, 1
  100 ,  106 ,  1 ,  0.060500 ,  0.229000 ,  0.062000 ,  9900.000000 ,  0.000000 ,  0.000000 ,  0, 0, 0, 0,  1 , 0, 1, 1
  101 ,  102 ,  1 ,  0.024600 ,  0.112000 ,  0.029400 ,  9900.000000 ,  0.000000 ,  0.000000 ,  0, 0, 0, 0,  1 , 0, 1, 1
  103 ,  104 ,  1 ,  0.046600 ,  0.158400 ,  0.040700 ,  9900.000000 ,  0.000000 ,  0.000000 ,  0, 0, 0, 0,  1 , 0, 1, 1
  103 ,  105 ,  1 ,  0.053500 ,  0.162500 ,  0.040800 ,  9900.000000 ,  0.000000 ,  0.000000 ,  0, 0, 0, 0,  1 , 0, 1, 1
  103 ,  110 ,  1 ,  0.039060 ,  0.181300 ,  0.046100 ,  9900.000000 ,  0.000000 ,  0.000000 ,  0, 0, 0, 0,  1 , 0, 1, 1
  104 ,  105 ,  1 ,  0.009940 ,  0.037800 ,  0.009860 ,  9900.000000 ,  0.000000 ,  0.000000 ,  0, 0, 0, 0,  1 , 0, 1, 1
  105 ,  106 ,  1 ,  0.014000 ,  0.054700 ,  0.014340 ,  9900.000000 ,  0.000000 ,  0.000000 ,  0, 0, 0, 0,  1 , 0, 1, 1
  105 ,  107 ,  1 ,  0.053000 ,  0.183000 ,  0.047200 ,  9900.000000 ,  0.000000 ,  0.000000 ,  0, 0, 0, 0,  1 , 0, 1, 1
  105 ,  108 ,  1 ,  0.026100 ,  0.070300 ,  0.018440 ,  9900.000000 ,  0.000000 ,  0.000000 ,  0, 0, 0, 0,  1 , 0, 1, 1
  106 ,  107 ,  1 ,  0.053000 ,  0.183000 ,  0.047200 ,  9900.000000 ,  0.000000 ,  0.000000 ,  0, 0, 0, 0,  1 , 0, 1, 1
  108 ,  109 ,  1 ,  0.010500 ,  0.028800 ,  0.007600 ,  9900.000000 ,  0.000000 ,  0.000000 ,  0, 0, 0, 0,  1 , 0, 1, 1
  109 ,  110 ,  1 ,  0.027800 ,  0.076200 ,  0.020200 ,  9900.000000 ,  0.000000 ,  0.000000 ,  0, 0, 0, 0,  1 , 0, 1, 1
  110 ,  111 ,  1 ,  0.022000 ,  0.075500 ,  0.020000 ,  9900.000000 ,  0.000000 ,  0.000000 ,  0, 0, 0, 0,  1 , 0, 1, 1
  110 ,  112 ,  1 ,  0.024700 ,  0.064000 ,  0.062000 ,  9900.000000 ,  0.000000 ,  0.000000 ,  0, 0, 0, 0,  1 , 0, 1, 1
  114 ,  115 ,  1 ,  0.002300 ,  0.010400 ,  0.002760 ,  9900.000000 ,  0.000000 ,  0.000000 ,  0, 0, 0, 0,  1 , 0, 1, 1
0 / END OF BRANCH DATA, BEGIN TRANSFORMER DATA
  8 ,  5 , 0,  1 , 1, 1, 1, 0, 0, 2, '            ',  1 , 1, 1
   0.000000 ,  0.026700 ,  100.000000
   0.985000 , 0,  0.000000 ,  9900.000000 ,  0.000000 ,  0.000000 , 0, 0,  1.06 ,  0.94 ,  1.06 ,  0.94 , 33, 0, 0, 0
   1.000000, 0
  26 ,  25 , 0,  1 , 1, 1, 1, 0, 0, 2, '            ',  1 , 1, 1
   0.000000 ,  0.038200 ,  100.000000
   0.960000 , 0,  0.000000 ,  9900.000000 ,  0.000000 ,  0.000000 , 0, 0,  1.06 ,  0.94 ,  1.06 ,  0.94 , 33, 0, 0, 0
   1.000000, 0
  30 ,  17 , 0,  1 , 1, 1, 1, 0, 0, 2, '            ',  1 , 1, 1
   0.000000 ,  0.038800 ,  100.000000
   0.960000 , 0,  0.000000 ,  9900.000000 ,  0.000000 ,  0.000000 , 0, 0,  1.06 ,  0.94 ,  1.06 ,  0.94 , 33, 0, 0, 0
   1.000000, 0
  38 ,  37 , 0,  1 , 1, 1, 1, 0, 0, 2, '            ',  1 , 1, 1
   0.000000 ,  0.037500 ,  100.000000
   0.935000 , 0,  0.000000 ,  9900.000000 ,  0.000000 ,  0.000000 , 0, 0,  1.06 ,  0.94 ,  1.06 ,  0.94 , 33, 0, 0, 0
   1.000000, 0
  63 ,  59 , 0,  1 , 1, 1, 1, 0, 0, 2, '            ',  1 , 1, 1
   0.000000 ,  0.038600 ,  100.000000
   0.960000 , 0,  0.000000 ,  9900.000000 ,  0.000000 ,  0.000000 , 0, 0,  1.06 ,  0.94 ,  1.06 ,  0.94 , 33, 0, 0, 0
   1.000000, 0
  64 ,  61 , 0,  1 , 1, 1, 1, 0, 0, 2, '            ',  1 , 1, 1
   0.000000 ,  0.026800 ,  100.000000
   0.985000 , 0,  0.000000 ,  9900.000000 ,  0.000000 ,  0.000000 , 0, 0,  1.06 ,  0.94 ,  1.06 ,  0.94 , 33, 0, 0, 0
   1.000000, 0
  65 ,  66 , 0,  1 , 1, 1, 1, 0, 0, 2, '            ',  1 , 1, 1
   0.000000 ,  0.037000 ,  100.000000
   0.935000 , 0,  0.000000 ,  9900.000000 ,  0.000000 ,  0.000000 , 0, 0,  1.06 ,  0.94 ,  1.06 ,  0.94 , 33, 0, 0, 0
   1.000000, 0
  68 ,  69 , 0,  1 , 1, 1, 1, 0, 0, 2, '            ',  1 , 1, 1
   0.000000 ,  0.037000 ,  100.000000
   0.935000 , 0,  0.000000 ,  9900.000000 ,  0.000000 ,  0.000000 , 0, 0,  1.06 ,  0.94 ,  1.06 ,  0.94 , 33, 0, 0, 0
   1.000000, 0
  81 ,  80 , 0,  1 , 1, 1, 1, 0, 0, 2, '            ',  1 , 1, 1
   0.000000 ,  0.037000 ,  100.000000
   0.935000 , 0,  0.000000 ,  9900.000000 ,  0.000000 ,  0.000000 , 0, 0,  1.06 ,  0.94 ,  1.06 ,  0.94 , 33, 0, 0, 0
   1.000000, 0
0 / END OF TRANSFORMER DATA, BEGIN AREA DATA
0 / END OF AREA DATA, BEGIN TWO-TERMINAL DC DATA
0 / END OF TWO-TERMINAL DC DATA, BEGIN VSC DC LINE DATA
0 / END OF VSC DC LINE DATA, BEGIN SWITCHED SHUNT DATA
0 / END OF SWITCHED SHUNT DATA, BEGIN IMPEDANCE CORRECTION DATA
0 / END OF IMPEDANCE CORRECTION DATA, BEGIN MULTI-TERMINAL DC DATA
0 / END OF MULTI-TERMINAL DC DATA, BEGIN MULTI-SECTION LINE DATA
0 / END OF MULTI-SECTION LINE DATA, BEGIN ZONE DATA
0 / END OF ZONE DATA, BEGIN INTER-AREA TRANSFER DATA
0 / END OF INTER-AREA TRANSFER DATA, BEGIN OWNER DATA
0 / END OF OWNER DATA, BEGIN FACTS CONTROL DEVICE DATA
0 / END OF FACTS CONTROL DEVICE DATA
